Circuit: * C:\users\nahu\Escritorio\TC_II\Mi Repo\TC-II\Tarea Semanal\Tarea Semanal 3\TS3_b.asc

Ignoring empty pin current: Ix(u1:1)
Ignoring empty pin current: Ix(u1:2)

Date: Tue May 02 11:45:42 2023
Total elapsed time: 0.014 seconds.

tnom = 27
temp = 27
method = trap
totiter = 0
traniter = 0
tranpoints = 0
accept = 0
rejected = 0
matrix size = 6
fillins = 0
solver = Normal

