Circuit: * C:\users\nahu\Escritorio\TC_II\Mi Repo\TC-II\Tarea Semanal\Tarea Semanal 13\TS13.asc


Date: Mon Dec 18 19:52:53 2023
Total elapsed time: 0.031 seconds.

tnom = 27
temp = 27
method = trap
totiter = 0
traniter = 0
tranpoints = 0
accept = 0
rejected = 0
matrix size = 3
fillins = 0
solver = Normal

