Circuit: * C:\Users\Nahu\OneDrive - UTN.BA\UTN\Año IV\TC II\TS6\Ej #1\Trafo Ej #1.asc

Direct Newton iteration for .op point succeeded.

Date: Mon Aug 21 18:24:57 2023
Total elapsed time: 0.027 seconds.

tnom = 27
temp = 27
method = trap
totiter = 3
traniter = 0
tranpoints = 0
accept = 0
rejected = 0
matrix size = 5
fillins = 2
solver = Normal
Avg thread counts: 12.0/0.0/12.0/3.7
Matrix Compiler1:      24 opcodes
Matrix Compiler2: 437 bytes object code size
