Circuit: * C:\users\nahu\Escritorio\TC_II\Mi Repo\TC-II\Tarea Semanal\Tarea Semanal 6\Ej #1\Trafo Ej #1.asc


Date: Mon Aug 28 15:58:05 2023
Total elapsed time: 0.037 seconds.

tnom = 27
temp = 27
method = trap
totiter = 0
traniter = 0
tranpoints = 0
accept = 0
rejected = 0
matrix size = 4
fillins = 2
solver = Normal

