Circuit: * C:\users\nahu\Escritorio\TC_II\Mi Repo\TC-II\Tarea Semanal\Tarea Semanal 4\Ts4_Pasivo.asc

Ignoring empty pin current: Ix(u1:1)
Ignoring empty pin current: Ix(u1:2)

Date: Fri May 19 16:07:07 2023
Total elapsed time: 0.026 seconds.

tnom = 27
temp = 27
method = trap
totiter = 0
traniter = 0
tranpoints = 0
accept = 0
rejected = 0
matrix size = 6
fillins = 1
solver = Normal

