Circuit: * C:\users\nahu\Escritorio\TC_II\Mi Repo\TC-II\Tarea Semanal\Tarea Semanal 6\Ej #2\Draft1.asc


Date: Wed Aug 23 17:19:58 2023
Total elapsed time: 0.030 seconds.

tnom = 27
temp = 27
method = trap
totiter = 0
traniter = 0
tranpoints = 0
accept = 0
rejected = 0
matrix size = 4
fillins = 1
solver = Normal

